3    
placeholder
C        1.7521830330   -1.6185231849   -0.0000003988
N        1.1699406541    0.5199763093    0.0000003531
H        0.6721788864    2.3481896563    0.0000000767
3    
placeholder
C        1.7520967033   -1.6184333178   -0.0000003882
N        1.1699264394    0.5200829080    0.0000003430
H        0.6723098975    2.3480035420    0.0000000757
3    
placeholder
C        1.7517141512   -1.6168185351   -0.0000003904
N        1.1699671457    0.5202861375    0.0000003426
H        0.6729154926    2.3462573905    0.0000000768
3    
placeholder
C        1.7629928006   -1.6106548519   -0.0000003912
N        1.1610549372    0.5178142308    0.0000003372
H        0.6715829118    2.3428234130    0.0000000785
3    
placeholder
C        1.7994539011   -1.5983956117   -0.0000003873
N        1.1330327902    0.5098206134    0.0000003219
H        0.6654274522    2.3390923939    0.0000000811
3    
placeholder
C        1.8305951002   -1.5893063671   -0.0000003834
N        1.1100580522    0.5023584150    0.0000003092
H        0.6591267123    2.3378910811    0.0000000827
3    
placeholder
C        1.8461671989   -1.5857301822   -0.0000003812
N        1.0990626325    0.4983644610    0.0000003031
H        0.6554248989    2.3385056425    0.0000000833
3    
placeholder
C        1.8534619743   -1.5849419519   -0.0000003801
N        1.0941416281    0.4964800924    0.0000003004
H        0.6534202938    2.3396828881    0.0000000835
3    
placeholder
C        1.8571889259   -1.5854176335   -0.0000003795
N        1.0915897304    0.4957745739    0.0000002991
H        0.6524180788    2.3408981146    0.0000000837
3    
placeholder
C        1.8598004843   -1.5880444570   -0.0000003797
N        1.0881792748    0.4975000426    0.0000002978
H        0.6534502558    2.3418239249    0.0000000844
3    
placeholder
C        1.8549941589   -1.5909778848   -0.0000003826
N        1.0854598777    0.5054038173    0.0000002978
H        0.6612885939    2.3368579997    0.0000000864
3    
placeholder
C        1.8381433236   -1.5880799783   -0.0000003885
N        1.0870302663    0.5185468533    0.0000003003
H        0.6768438088    2.3208004740    0.0000000889
3    
placeholder
C        1.8050778227   -1.5716714591   -0.0000003976
N        1.0960161338    0.5356286125    0.0000003066
H        0.7010956227    2.2872888906    0.0000000913
3    
placeholder
C        1.7273729571   -1.5087707435   -0.0000004143
N        1.1247678088    0.5616442276    0.0000003220
H        0.7501073829    2.1984093180    0.0000000923
3    
placeholder
C        1.6767933349   -1.4508332959   -0.0000004221
N        1.1462159110    0.5712373674    0.0000003319
H        0.7792435415    2.1308745269    0.0000000901
3    
placeholder
C        1.6542229891   -1.3968399513   -0.0000004215
N        1.1601543439    0.5636059348    0.0000003362
H        0.7878740628    2.0845204758    0.0000000853
3    
placeholder
C        1.6576712653   -1.3509244524   -0.0000004145
N        1.1691372354    0.5394171996    0.0000003363
H        0.7754430726    2.0627935670    0.0000000782
3    
placeholder
C        1.6696519007   -1.3181539959   -0.0000004066
N        1.1743760603    0.5146818214    0.0000003348
H        0.7582230692    2.0547593716    0.0000000718
3    
placeholder
C        1.6526064387   -1.2945843799   -0.0000004107
N        1.2220870341    0.4805315996    0.0000003487
H        0.7275589945    2.0653382219    0.0000000620
3    
placeholder
C        1.5770705978   -1.2581838236   -0.0000004346
N        1.3611972715    0.4132758382    0.0000003939
H        0.6639849579    2.0961915711    0.0000000407
3    
placeholder
C        1.5641652136   -1.3000145564   -0.0000001031
N        1.1581291743    0.6184796463    0.0000000642
H        0.8799575538    1.9328226796    0.0000000389
3    
placeholder
C        1.3159969619   -1.1467844207   -0.0000001101
N        1.3762160091    0.6018486072    0.0000000779
H        0.9100664551    1.7962232797    0.0000000323
3    
placeholder
C        1.2477508070   -1.2098763999   -0.0000001139
N        1.2434948180    0.7996676304    0.0000000771
H        1.1110343287    1.6614977363    0.0000000369
3    
placeholder
C        1.0569209997   -0.8113398255   -0.0000001092
N        1.6010371083    0.5370755722    0.0000000901
H        0.9443147627    1.5255427848    0.0000000191
3    
placeholder
C        1.0008968057   -0.5447044933    0.0000000000
N        1.8109632255    0.3234661498    0.0000000000
H        0.7903935887    1.4725171649    0.0000000000
3    
placeholder
C        0.9987519326   -0.3435092104    0.0000000035
N        1.9329040651    0.1589990183   -0.0000000053
H        0.6705899222    1.4357874165    0.0000000018
3    
placeholder
C        1.0281909199   -0.2100398253    0.0000000035
N        2.0088534439    0.0267186147   -0.0000000056
H        0.5651431733    1.4346692784    0.0000000021
3    
placeholder
C        1.0757372426   -0.1670389914    0.0000000000
N        2.0626031245   -0.0761871450    0.0000000000
H        0.4637813315    1.4946300529    0.0000000000
3    
placeholder
C        1.0639124539   -0.0888043226    0.0000000000
N        2.0486329024   -0.0753471101    0.0000000000
H        0.4896010477    1.4155439454    0.0000000000
3    
placeholder
C        1.0540184349   -0.0325977557    0.0000000000
N        2.0368396277   -0.0718581516    0.0000000000
H        0.5114209711    1.3557964493    0.0000000000
3    
placeholder
C        1.0974016592   -0.0803559859    0.0000000000
N        2.0743693241   -0.1305690453    0.0000000000
H        0.4305335192    1.4623690996    0.0000000000
3    
placeholder
C        1.0000000000    0.0000000000    0.0000000000
N        2.0000000000    0.0000000000    0.0000000000
H        0.6024160000    1.2509300000    0.0000000000
3    

C        1.0000000000    0.0000000000    0.0000000000
N        2.0000000000    0.0000000000    0.0000000000
H        0.6024160000    1.2509300000    0.0000000000
3    
placeholder
C        1.0000000000    0.0000000000    0.0000000000
N        2.0000000000    0.0000000000    0.0000000000
H        0.4271170000    1.0882760000    0.0000000000
3    
placeholder
C        1.1188967462   -0.0514251436    0.0000000000
N        2.0950527815   -0.1292564668    0.0000000000
H        0.2131614677    1.2690515914    0.0000000000
3    
placeholder
C        1.0667081408   -0.0037537227    0.0000000000
N        2.0484821220   -0.0780603828    0.0000000000
H        0.3119028445    1.1704768909    0.0000000000
3    
placeholder
C        1.0917649381    0.0466830559    0.0000000000
N        2.0591332279   -0.1211076104    0.0000000000
H        0.2761884259    1.1631370661    0.0000000000
3    
placeholder
C        1.1146476373    0.1376593225    0.0000000000
N        2.0600502032   -0.1707008509    0.0000000000
H        0.2523936074    1.1217610741    0.0000000000
3    
placeholder
C        1.1470486708    0.2668344906    0.0000000247
N        2.0549572810   -0.2366534954   -0.0000000451
H        0.2250845493    1.0585308534    0.0000000203
3    
placeholder
C        1.1581118347    0.3127455131    0.0000000243
N        2.0488826300   -0.2568282747   -0.0000000448
H        0.2200964396    1.0327942948    0.0000000204
3    
placeholder
C        1.2820684269    0.2303901079    0.0000000171
N        2.1638509696   -0.3446224278   -0.0000000421
H       -0.0186083053    1.2025804222    0.0000000251
3    
placeholder
C        1.3075590375    0.2153214756    0.0000000143
N        2.1831469496   -0.3606314700   -0.0000000404
H       -0.0631795457    1.2332996851    0.0000000263
3    
placeholder
C        1.1521780974    0.2830658421    0.0000000491
N        2.0857243198   -0.2648959578   -0.0000000682
H        0.1880463228    1.0721722601    0.0000000186
3    
placeholder
C        1.1417595023    0.2210773915    0.0000000999
N        2.1243200444   -0.2563287112   -0.0000001201
H        0.1593440384    1.1259774952    0.0000000198
3    
placeholder
C        1.0704516553   -0.0851239256    0.0000003860
N        2.2374127538   -0.1508538042   -0.0000004231
H        0.1175119019    1.3268828941    0.0000000366
3    
placeholder
C        1.0127680565   -0.2622353407    0.0000006100
N        2.2551038443   -0.0497355799   -0.0000006856
H        0.1575143729    1.4028957106    0.0000000750
3    
placeholder
C        0.9548935761   -0.4460935736    0.0000009036
N        2.2442205809    0.0750324638   -0.0000010724
H        0.2262840721    1.4619762353    0.0000001682
3    
placeholder
C        0.9098462808   -0.6138725393    0.0000012410
N        2.2117130134    0.2017545864   -0.0000014691
H        0.3038411770    1.5030315856    0.0000002275
3    
placeholder
C        0.8609018638   -0.7466863679    0.0000015324
N        2.1947786349    0.3010942874   -0.0000019486
H        0.3697202778    1.5365055003    0.0000004157
3    
placeholder
C        0.1533247513   -0.7109794205    0.0000014540
N        2.7176633712    0.1926294900    0.0000006561
H        0.5544208677    1.6092600609   -0.0000021107
3    
placeholder
C        0.0482951217   -0.5956451425   -0.0000018638
N        2.8362380530    0.0912292954    0.0000163517
H        0.5408815295    1.5953346735   -0.0000144885
3    
placeholder
C        0.0996916117   -0.5518214083   -0.0000019665
N        2.8390037387    0.0465620601    0.0000179597
H        0.4867194467    1.5961782335   -0.0000159938
3    
placeholder
C        0.1227737120   -0.5293716438   -0.0000019403
N        2.8398432631    0.0253658491    0.0000180748
H        0.4627978291    1.5949246949   -0.0000161350
3    
placeholder
C        0.1517220308   -0.5101739161   -0.0000076773
N        2.8232238594    0.0160459883    0.0000500638
H        0.4505425373    1.5852198055   -0.0000423879
3    
placeholder
C        0.2074528417   -0.4984161135    0.0000022263
N        2.7915860049    0.0103919724   -0.0000202430
H        0.4264564659    1.5791256099    0.0000180153
3    
placeholder
C        0.2874469348   -0.5008903974   -0.0000138019
N        2.7423254818    0.0148948653    0.0001235460
H        0.3957327631    1.5770939240   -0.0001097455
3    
placeholder
C        0.4036990106   -0.5211581557    0.0000192480
N        2.6635868613    0.0350375240   -0.0002655906
H        0.3582104311    1.5772222461    0.0002463416
3    
placeholder
C        0.4910594089   -0.5474262145   -0.0001044602
N        2.6033452862    0.0563884830    0.0032938769
H        0.3311607747    1.5817698702   -0.0031894731
3    
placeholder
C        0.4686247451   -0.5487429730   -0.0002435587
N        2.6232711415    0.0517797379    0.0062959598
H        0.3338322922    1.5875811093   -0.0060519127
3    
placeholder
C        0.4714895522   -0.5568120100   -0.0000082922
N        2.6251169068    0.0532526984    0.0003928930
H        0.3293589167    1.5938425539   -0.0003824909
3    
placeholder
C        0.4829582299   -0.5811586390    0.0000027552
N        2.6285391576    0.0579014735    0.0000653526
H        0.3154055777    1.6122552095   -0.0000650241
3    
placeholder
C        0.4846721067   -0.5835150450    0.0000119406
N        2.6289264647    0.0578446952   -0.0002518594
H        0.3136563490    1.6142408259    0.0002431952
3    
placeholder
C        0.4885213701   -0.5875014891    0.0000161666
N        2.6306730721    0.0558535065   -0.0004748739
H        0.3095198180    1.6185036130    0.0004624268
3    
placeholder
C        0.4945092691   -0.5911546561    0.0000356664
N        2.6355337051    0.0485924333   -0.0014050939
H        0.3024862057    1.6250147721    0.0013741300
3    
placeholder
C        0.5072867695   -0.5934656845    0.0000363155
N        2.6515262604    0.0225009723   -0.0021724182
H        0.2860938802    1.6392843390    0.0021433449
3    
placeholder
C        0.5341739310   -0.5905990576    0.0000323194
N        2.6995733877   -0.0592023278   -0.0047694312
H        0.2500448221    1.6740589413    0.0047523643
3    
placeholder
C        0.5720119081   -0.5802910596   -0.0000426051
N        2.7858629110   -0.2199591558   -0.0017355400
H        0.2066234571    1.7333507172    0.0018125255
3    
placeholder
C        0.5921527767   -0.5589052782   -0.0000290393
N        2.8263045391   -0.3239968538   -0.0066473324
H        0.2009452488    1.7541402979    0.0067237589
3    
placeholder
C        0.7040708978   -0.4275766539   -0.0001059255
N        2.9679907737   -0.9434979597    0.0165463213
H        0.3089378181    1.8351819578   -0.0162906764
3    
placeholder
C        0.7438124026   -0.3451168106    0.0008761143
N        2.9236593083   -1.0508132058   -0.0237066759
H        0.4025135422    1.7614214975    0.0229876049
3    
placeholder
C        0.8482666540   -0.2567588196    0.0003246989
N        2.8603893924   -1.2883970486   -0.0031072220
H        0.5622730245    1.6880430499    0.0030084761
3    
placeholder
C        0.9627156588   -0.2521371093   -0.0009994760
N        2.8234265196   -1.5362421182    0.0236168676
H        0.6872901195    1.7058259116   -0.0223382896
3    
placeholder
C        1.4595961521   -0.3612069719   -0.0029882483
N        2.5034023829   -2.2930062194    0.1410831710
H        1.2882434827    1.7080485993   -0.1376143537
3    
placeholder
C        1.7143278816   -0.4448691367   -0.0033987399
N        2.2829930244   -2.5637747367    0.1754858631
H        1.6370862601    1.6369994317   -0.1714952497
3    
placeholder
C        1.9345957074   -0.5406101666   -0.0038050798
N        2.0807751680   -2.6954569345    0.2018948600
H        1.9382046261    1.5114509784   -0.1973974771
3    
placeholder
C        2.0689150409   -0.5992489754   -0.0050204015
N        1.9587695174   -2.7776030378    0.2057097673
H        2.1216653788    1.4349907284   -0.1999466143
3    
placeholder
C        2.0292213672   -0.5773784864   -0.0049132339
N        1.9954962883   -2.7477447569    0.2037354223
H        2.0662696271    1.4482613438   -0.1980984196
3    
placeholder
C        2.0324416365   -0.5791620379   -0.0048789284
N        1.9925421022   -2.7495142362    0.2039576671
H        2.0707073893    1.4466549259   -0.1983586012
