3    
placeholder
C        0.5540821752   -2.0350707785   -0.0000004091
N       -0.0281602038    0.1034287157    0.0000003428
H       -0.5259219714    1.9316420628    0.0000000664
3    
placeholder
C        0.5526248693   -2.0297180978   -0.0315104906
N       -0.0282159314    0.1036329874    0.0683684287
H       -0.5244089379    1.9260851104   -0.0368579381
3    
placeholder
C        0.5486324653   -2.0150545112   -0.0334738387
N       -0.0361631695    0.1328221168    0.0726283458
H       -0.5124692958    1.8822323944   -0.0391545070
3    
placeholder
C        0.5351729408   -1.9656195084   -0.0240139410
N       -0.0396853746    0.1457588332    0.0521030182
H       -0.4954875662    1.8198606752   -0.0280890772
3    
placeholder
C        0.5208651277   -1.9130688516   -0.0148760449
N       -0.0420046666    0.1542774052    0.0322763457
H       -0.4788604611    1.7587914464   -0.0174003008
3    
placeholder
C        0.5054318950   -1.8563846734   -0.0067560269
N       -0.0425841590    0.1564059146    0.0146581867
H       -0.4628477360    1.6999787588   -0.0079021599
3    
placeholder
C        0.4878521216   -1.7918165156   -0.0013071199
N       -0.0379632351    0.1394339399    0.0028355984
H       -0.4498888865    1.6523825757   -0.0015284785
3    
placeholder
C        0.4711243043   -1.7303774401   -0.0026053847
N       -0.0247465787    0.0908908864    0.0056524940
H       -0.4463777256    1.6394865537   -0.0030471093
3    
placeholder
C        0.4630709517   -1.7007984051   -0.0246137467
N       -0.0109439144    0.0401952320    0.0534045140
H       -0.4521270374    1.6606031731   -0.0287907673
3    
placeholder
C        0.4564204934   -1.6763719990   -0.0494973375
N        0.0013196205   -0.0048474391    0.1073949760
H       -0.4577401139    1.6812194381   -0.0578976385
3    
placeholder
C        0.4510121704   -1.6565078263   -0.0687210527
N        0.0098145879   -0.0360485851    0.1491050838
H       -0.4608267584    1.6925564114   -0.0803840312
3    
placeholder
C        0.4534031319   -1.6652896109   -0.0524067886
N       -0.0053530262    0.0196602749    0.1137076721
H       -0.4480501058    1.6456293360   -0.0613008836
3    
placeholder
C        0.4557940934   -1.6740713955   -0.0360925244
N       -0.0205206403    0.0753691349    0.0783102604
H       -0.4352734532    1.5987022606   -0.0422177360
3    
placeholder
C        0.4581850550   -1.6828531801   -0.0197782603
N       -0.0356882544    0.1310779949    0.0429128487
H       -0.4224968006    1.5517751852   -0.0231345884
3    
placeholder
C        0.4605760165   -1.6916349647   -0.0034639962
N       -0.0508558685    0.1867868549    0.0075154371
H       -0.4097201479    1.5048481098   -0.0040514408
3    
placeholder
C        0.4510668911   -1.6567091116   -0.0183641979
N       -0.0516597229    0.1897391121    0.0398447258
H       -0.3994071682    1.4669699995   -0.0214805279
3    
placeholder
C        0.4383502054   -1.6100022618   -0.0416779754
N       -0.0485919563    0.1784713062    0.0904291315
H       -0.3897582492    1.4315309556   -0.0487511562
3    
placeholder
C        0.4256335198   -1.5632954120   -0.0649917528
N       -0.0455241896    0.1672035003    0.1410135372
H       -0.3801093301    1.3960919118   -0.0760217844
3    
placeholder
C        0.4129168341   -1.5165885622   -0.0883055303
N       -0.0424564230    0.1559356943    0.1915979429
H       -0.3704604111    1.3606528679   -0.1032924127
3    
placeholder
C        0.4150838100   -1.5245476505   -0.0763873961
N       -0.0556697758    0.2044667521    0.1657389080
H       -0.3594140342    1.3200808985   -0.0893515119
3    
placeholder
C        0.4194934545   -1.5407437965   -0.0591605214
N       -0.0713363659    0.2620082961    0.1283613837
H       -0.3481570886    1.2787355004   -0.0692008623
3    
placeholder
C        0.4239030989   -1.5569399424   -0.0419336467
N       -0.0870029560    0.3195498400    0.0909838595
H       -0.3369001429    1.2373901024   -0.0490502128
3    
placeholder
C        0.4249861967   -1.5609180798   -0.0315623237
N       -0.0981595862    0.3605268064    0.0684809751
H       -0.3268266105    1.2003912734   -0.0369186514
3    
placeholder
C        0.4107035543   -1.5084596893   -0.0528576615
N       -0.0884841404    0.3249898921    0.1146859352
H       -0.3222194139    1.1834697972   -0.0618282737
3    
placeholder
C        0.3964209119   -1.4560012988   -0.0741529993
N       -0.0788086946    0.2894529777    0.1608908954
H       -0.3176122173    1.1665483211   -0.0867378960
3    
placeholder
C        0.3821382694   -1.4035429083   -0.0954483372
N       -0.0691332488    0.2539160634    0.2070958555
H       -0.3130050206    1.1496268449   -0.1116475183
3    
placeholder
C        0.3678556270   -1.3510845178   -0.1167436750
N       -0.0594578030    0.2183791490    0.2533008157
H       -0.3083978240    1.1327053688   -0.1365571406
3    
placeholder
C        0.3535729846   -1.2986261273   -0.1380390128
N       -0.0497823573    0.1828422347    0.2995057758
H       -0.3037906274    1.1157838926   -0.1614667629
3    
placeholder
C        0.3392903422   -1.2461677368   -0.1593343507
N       -0.0401069115    0.1473053203    0.3457107359
H       -0.2991834307    1.0988624165   -0.1863763852
3    
placeholder
C        0.3250076998   -1.1937093463   -0.1806296885
N       -0.0304314657    0.1117684059    0.3919156961
H       -0.2945762341    1.0819409403   -0.2112860075
3    
placeholder
C        0.3103623054   -1.1399186293   -0.1996362288
N       -0.0182325671    0.0669632115    0.4331546060
H       -0.2921297384    1.0729554178   -0.2335183771
3    
placeholder
C        0.2955856255   -1.0856457227   -0.2178144180
N       -0.0051203918    0.0188036832    0.4725962256
H       -0.2904652337    1.0668420395   -0.2547818076
3    
placeholder
C        0.2808089456   -1.0313728162   -0.2359926071
N        0.0079917834   -0.0293558451    0.5120378452
H       -0.2888007290    1.0607286613   -0.2760452381
3    
placeholder
C        0.2660322657   -0.9770999096   -0.2541707962
N        0.0211039586   -0.0775153733    0.5514794648
H       -0.2871362243    1.0546152830   -0.2973086685
3    
placeholder
C        0.2512555858   -0.9228270031   -0.2723489854
N        0.0342161339   -0.1256749016    0.5909210844
H       -0.2854717196    1.0485019047   -0.3185720990
3    
placeholder
C        0.2353596397   -0.8644432133   -0.2849546147
N        0.0498342924   -0.1830385035    0.6182718065
H       -0.2851939322    1.0474817168   -0.3333171918
3    
placeholder
C        0.2190965509   -0.8047109673   -0.2957323270
N        0.0662744663   -0.2434212353    0.6416564597
H       -0.2853710172    1.0481322026   -0.3459241327
3    
placeholder
C        0.2028334621   -0.7449787213   -0.3065100394
N        0.0827146402   -0.3038039670    0.6650411130
H       -0.2855481023    1.0487826883   -0.3585310736
3    
placeholder
C        0.1867246100   -0.6858129769   -0.3155967199
N        0.0998952795   -0.3669063086    0.6847566990
H       -0.2866198895    1.0527192854   -0.3691599792
3    
placeholder
C        0.1713451545   -0.6293262583   -0.3166863900
N        0.1205776328   -0.4428698785    0.6871210053
H       -0.2919227872    1.0721961368   -0.3704346153
3    
placeholder
C        0.1559656990   -0.5728395398   -0.3177760601
N        0.1412599860   -0.5188334485    0.6894853116
H       -0.2972256850    1.0916729882   -0.3717092515
3    
placeholder
C        0.1452289253   -0.5334048054   -0.3144696388
N        0.1626278723   -0.5973148349    0.6823113221
H       -0.3078567976    1.1307196404   -0.3678416833
3    
placeholder
C        0.1383101853   -0.5079932261   -0.3075479742
N        0.1845595249   -0.6778668151    0.6672932600
H       -0.3228697102    1.1858600412   -0.3597452858
3    
placeholder
C        0.1265434311   -0.4647755317   -0.3005381932
N        0.1950038095   -0.7162272036    0.6520840082
H       -0.3215472406    1.1810027353   -0.3515458150
3    
placeholder
C        0.1105862413   -0.4061669204   -0.2935083746
N        0.1949960763   -0.7161987076    0.6368312785
H       -0.3055823176    1.1223656280   -0.3433229040
3    
placeholder
C        0.1000597242   -0.3675044476   -0.2872871101
N        0.1972005033   -0.7242951971    0.6233328818
H       -0.2972602275    1.0917996447   -0.3360457717
3    
placeholder
C        0.1068771474   -0.3925439688   -0.2831163871
N        0.2102115912   -0.7720831545    0.6142835774
H       -0.3170887386    1.1646271233   -0.3311671903
3    
placeholder
C        0.1095394870   -0.4023223944   -0.2825520843
N        0.2134966129   -0.7841485993    0.6130591970
H       -0.3230360999    1.1864709936   -0.3305071127
3    
placeholder
C        0.1044077899   -0.3834743104   -0.2887526444
N        0.1985376413   -0.7292063491    0.6265126788
H       -0.3029454312    1.1126806595   -0.3377600345
3    
placeholder
C        0.0992760928   -0.3646262264   -0.2949532045
N        0.1835786696   -0.6742640989    0.6399661607
H       -0.2828547624    1.0388903254   -0.3450129563
3    
placeholder
C        0.0941443957   -0.3457781425   -0.3011537645
N        0.1686196980   -0.6193218487    0.6534196426
H       -0.2627640937    0.9650999912   -0.3522658780
3    
placeholder
C        0.0815636877   -0.2995708967   -0.2951735795
N        0.1713676877   -0.6294147744    0.6404443233
H       -0.2529313754    0.9289856711   -0.3452707437
3    
placeholder
C        0.0717552041   -0.2635457170   -0.2806447498
N        0.1893728220   -0.6955450692    0.6089208361
H       -0.2611280261    0.9590907862   -0.3282760863
3    

C        0.0762965629   -0.2802255892   -0.2706604767
N        0.2048648575   -0.7524451423    0.5872577535
H       -0.2811614204    1.0326707316   -0.3165972768
3    

C        0.0808379216   -0.2969054615   -0.2606762035
N        0.2203568930   -0.8093452155    0.5655946708
H       -0.3011948146    1.1062506770   -0.3049184674
3    
placeholder
C        0.0853792804   -0.3135853337   -0.2506919303
N        0.2358489285   -0.8662452887    0.5439315882
H       -0.3212282089    1.1798306224   -0.2932396579
3    
placeholder
C        0.0844865376   -0.3103064299   -0.2469266447
N        0.2395486890   -0.8798339722    0.5357619720
H       -0.3240352266    1.1901404021   -0.2888353273
3    
placeholder
C        0.0765106199   -0.2810119090   -0.2512676076
N        0.2278776017   -0.8369676649    0.5451806514
H       -0.3043882216    1.1179795739   -0.2939130438
3    
placeholder
C        0.0663378676   -0.2436488194   -0.2366133658
N        0.2320554659   -0.8523122178    0.5133850477
H       -0.2983933335    1.0959610371   -0.2767716819
3    
placeholder
C        0.0522894254   -0.1920509768   -0.1978013976
N        0.2502705202   -0.9192132041    0.4291739299
H       -0.3025599456    1.1112641809   -0.2313725322
3    
placeholder
C        0.0377458030   -0.1386344331   -0.1537968425
N        0.2650775713   -0.9735969778    0.3336963459
H       -0.3028233743    1.1122314109   -0.1798995033
3    
placeholder
C        0.0253801526   -0.0932173409   -0.1019877760
N        0.2767432772   -1.0164429017    0.2212851460
H       -0.3021234297    1.1096602425   -0.1192973700
3    
placeholder
C        0.0141029137   -0.0517978573   -0.0474395516
N        0.2862609792   -1.0513994551    0.1029307355
H       -0.3003638929    1.1031973124   -0.0554911839
3    
placeholder
C        0.0180299600   -0.0662214936   -0.0286349844
N        0.2945417162   -1.0818132650    0.0621300726
H       -0.3125716762    1.1480347587   -0.0334950882
3    
placeholder
C        0.0275068954   -0.1010290395   -0.0266837745
N        0.3038505044   -1.1160031913    0.0578964877
H       -0.3313573998    1.2170322308   -0.0312127131
3    
placeholder
C        0.0369838308   -0.1358365854   -0.0247325646
N        0.3131592926   -1.1501931176    0.0536629027
H       -0.3501431233    1.2860297030   -0.0289303381
3    
placeholder
C        0.0464607661   -0.1706441313   -0.0227813547
N        0.3224680808   -1.1843830438    0.0494293177
H       -0.3689288469    1.3550271752   -0.0266479631
3    
placeholder
C        0.0563088811   -0.2068149763   -0.0199851482
N        0.3313808569   -1.2171184588    0.0433623254
H       -0.3876897380    1.4239334351   -0.0233771772
3    
placeholder
C        0.0494463840   -0.1816098891   -0.0266121662
N        0.3254442298   -1.1953140966    0.0577411086
H       -0.3748906138    1.3769239857   -0.0311289424
3    
placeholder
C        0.0394156409   -0.1447682411   -0.0351037867
N        0.3167813045   -1.1634964248    0.0761655604
H       -0.3561969454    1.3082646660   -0.0410617738
3    
placeholder
C        0.0293848978   -0.1079265932   -0.0435954071
N        0.3081183793   -1.1316787531    0.0945900122
H       -0.3375032770    1.2396053463   -0.0509946051
3    
placeholder
C        0.0193541546   -0.0710849452   -0.0520870276
N        0.2994554540   -1.0998610814    0.1130144640
H       -0.3188096087    1.1709460266   -0.0609274364
3    
placeholder
C        0.0213051437   -0.0782504872   -0.0826179207
N        0.2980158022   -1.0945738285    0.1792579804
H       -0.3193209459    1.1728243157   -0.0966400597
3    
placeholder
C        0.0329238281   -0.1209241238   -0.1257371647
N        0.2958864053   -1.0867533974    0.2728146961
H       -0.3288102334    1.2076775211   -0.1470775314
3    
placeholder
C        0.0466997586   -0.1715210455   -0.1680952967
N        0.2891233956   -1.0619143070    0.3647200066
H       -0.3358231542    1.2334353524   -0.1966247099
3    
placeholder
C        0.0604756890   -0.2221179671   -0.2104534287
N        0.2823603859   -1.0370752166    0.4566253171
H       -0.3428360750    1.2591931837   -0.2461718883
3    
placeholder
C        0.0742516195   -0.2727148888   -0.2528115607
N        0.2755973762   -1.0122361261    0.5485306275
H       -0.3498489957    1.2849510150   -0.2957190668
3    
placeholder
C        0.0880275500   -0.3233118105   -0.2951696928
N        0.2688343665   -0.9873970357    0.6404359380
H       -0.3568619165    1.3107088463   -0.3452662452
3    
placeholder
C        0.1047086282   -0.3845790132   -0.3281169847
N        0.2527810076   -0.9284355954    0.7119223434
H       -0.3574896358    1.3130146086   -0.3838053587
3    
placeholder
C        0.1217728227   -0.4472533590   -0.3598232222
N        0.2355024840   -0.8649742706    0.7807160061
H       -0.3572753068    1.3122276296   -0.4208927838
3    
placeholder
C        0.1391159533   -0.5109522197   -0.3883008887
N        0.2174019738   -0.7984938548    0.8425045696
H       -0.3565179271    1.3094460746   -0.4542036809
3    
placeholder
C        0.1572406461   -0.5775217098   -0.4077322929
N        0.1969983063   -0.7235541274    0.8846652662
H       -0.3542389523    1.3010758373   -0.4769329733
3    
placeholder
C        0.1753653388   -0.6440911999   -0.4271636971
N        0.1765946388   -0.6486144001    0.9268259628
H       -0.3519599776    1.2927056000   -0.4996622657
3    
placeholder
C        0.1935659487   -0.7109395528   -0.4417531903
N        0.1559449194   -0.5727708934    0.9584810633
H       -0.3495108681    1.2837104462   -0.5167278730
3    
placeholder
C        0.2118632998   -0.7781432606   -0.4501726340
N        0.1349816561   -0.4957757004    0.9767488777
H       -0.3468449558    1.2739189610   -0.5265762438
3    
placeholder
C        0.2301606509   -0.8453469684   -0.4585920777
N        0.1140183927   -0.4187805075    0.9950166921
H       -0.3441790436    1.2641274759   -0.5364246145
3    
placeholder
C        0.2484833919   -0.9126439441   -0.4648338746
N        0.0934891344   -0.3433793266    1.0085596211
H       -0.3419725262    1.2560232707   -0.5437257464
3    
placeholder
C        0.2668141539   -0.9799703848   -0.4703877137
N        0.0730969860   -0.2684817230    1.0206098732
H       -0.3399111400    1.2484521078   -0.5502221596
3    
placeholder
C        0.2781914003   -1.0217573911   -0.4903411692
N        0.0571013030   -0.2097319472    1.0639032845
H       -0.3352927032    1.2314893383   -0.5735621152
3    
placeholder
C        0.2850145436   -1.0468177200   -0.5197254421
N        0.0439850203   -0.1615579539    1.1276589438
H       -0.3289995638    1.2083756740   -0.6079335017
3    
placeholder
C        0.2918376869   -1.0718780490   -0.5491097150
N        0.0308687375   -0.1133839606    1.1914146032
H       -0.3227064244    1.1852620096   -0.6423048882
3    
placeholder
C        0.2986608303   -1.0969383779   -0.5784939879
N        0.0177524548   -0.0652099674    1.2551702626
H       -0.3164132851    1.1621483453   -0.6766762747
3    
placeholder
C        0.3054839736   -1.1219987069   -0.6078782608
N        0.0046361721   -0.0170359741    1.3189259220
H       -0.3101201457    1.1390346810   -0.7110476611
3    
placeholder
C        0.3123071169   -1.1470590358   -0.6372625337
N       -0.0084801107    0.0311380192    1.3826815814
H       -0.3038270063    1.1159210167   -0.7454190476
3    
placeholder
C        0.3191302603   -1.1721193648   -0.6666468066
N       -0.0215963934    0.0793120124    1.4464372407
H       -0.2975338669    1.0928073524   -0.7797904341
3    
placeholder
C        0.3259534036   -1.1971796937   -0.6960310795
N       -0.0347126761    0.1274860057    1.5101929001
H       -0.2912407275    1.0696936880   -0.8141618206
3    
placeholder
C        0.3327765469   -1.2222400227   -0.7254153524
N       -0.0478289588    0.1756599989    1.5739485595
H       -0.2849475881    1.0465800237   -0.8485332070
3    
placeholder
C        0.3274159551   -1.2025510987   -0.7546443798
N       -0.0511289283    0.1877799678    1.6373673964
H       -0.2762870268    1.0147711308   -0.8827230166
3    
placeholder
C        0.3219361613   -1.1824243619   -0.7838718883
N       -0.0543328580    0.1995471954    1.7007829380
H       -0.2676033034    0.9828771665   -0.9169110497
3    
placeholder
C        0.3019605293   -1.1090564440   -0.7932056843
N       -0.0292826354    0.1075409115    1.7210347039
H       -0.2726778939    1.0015155325   -0.9278290196
3    
placeholder
C        0.2810593672   -1.0322892308   -0.7934564698
N       -0.0041685955    0.0153003525    1.7215788724
H       -0.2768907717    1.0169888783   -0.9281224026
3    
placeholder
C        0.2634622227   -0.9676573487   -0.7751123584
N        0.0206392002   -0.0758151719    1.6817772997
H       -0.2841014228    1.0434725206   -0.9066649414
3    
placeholder
C        0.2507841911   -0.9210927604   -0.7500401719
N        0.0441549275   -0.1621850122    1.6273776762
H       -0.2949391186    1.0832777726   -0.8773375043
3    
placeholder
C        0.2428669478   -0.8920139485   -0.7201726451
N        0.0632380423   -0.2322743891    1.5625734950
H       -0.3061049901    1.1242883376   -0.8424008499
3    
placeholder
C        0.2374750847   -0.8722105319   -0.6892943687
N        0.0800943142   -0.2941848500    1.4955762657
H       -0.3175693988    1.1663953819   -0.8062818969
3    
placeholder
C        0.2389908959   -0.8777779535   -0.6816281104
N        0.0859232887   -0.3155938031    1.4789426260
H       -0.3249141845    1.1933717566   -0.7973145156
3    
placeholder
C        0.2422505131   -0.8897500849   -0.6838605157
N        0.1023842345   -0.3760527150    1.4837863286
H       -0.3446347476    1.2658027999   -0.7999258129
3    
placeholder
C        0.2346003605   -0.8616520375   -0.6912344919
N        0.1268641795   -0.4659644246    1.4997858203
H       -0.3614645401    1.3276164620   -0.8085513284
3    
placeholder
C        0.2265156527   -0.8319579305   -0.6980450397
N        0.1511909924   -0.5553136903    1.5145628299
H       -0.3777066452    1.3872716208   -0.8165177902
3    
placeholder
C        0.2183303400   -0.8018943175   -0.7045344065
N        0.1754515873   -0.6444197405    1.5286429665
H       -0.3937819274    1.4463140580   -0.8241085600
3    
placeholder
C        0.2071827086   -0.7609505171   -0.7079665277
N        0.2007906404   -0.7374867849    1.5360897366
H       -0.4079733490    1.4984373020   -0.8281232089
3    
placeholder
C        0.1934159310   -0.7103869696   -0.7060732832
N        0.2269253446   -0.8334760822    1.5319819519
H       -0.4203412755    1.5438630518   -0.8259086687
3    
placeholder
C        0.1789606794   -0.6572947604   -0.7020927893
N        0.2532278102   -0.9300815184    1.5233454193
H       -0.4321884896    1.5873762788   -0.8212526300
3    
placeholder
C        0.1645054278   -0.6042025512   -0.6981122955
N        0.2795302759   -1.0266869546    1.5147088868
H       -0.4440357036    1.6308895059   -0.8165965913
3    
placeholder
C        0.1500501762   -0.5511103420   -0.6941318017
N        0.3058327415   -1.1232923909    1.5060723543
H       -0.4558829177    1.6744027329   -0.8119405526
3    
placeholder
C        0.1355949246   -0.4980181329   -0.6901513078
N        0.3321352071   -1.2198978271    1.4974358217
H       -0.4677301317    1.7179159599   -0.8072845139
3    
placeholder
C        0.1180381495   -0.4335345083   -0.6741864899
N        0.3448635021   -1.2666469687    1.4627966452
H       -0.4629016516    1.7001814770   -0.7886101553
3    
placeholder
C        0.0988293457   -0.3629832430   -0.6511398353
N        0.3557356288   -1.3065785561    1.4127918597
H       -0.4545649745    1.6695617992   -0.7616520245
3    
placeholder
C        0.0780605648   -0.2867024353   -0.6202373490
N        0.3738475411   -1.3731008179    1.3457421170
H       -0.4519081059    1.6598032532   -0.7255047680
3    
placeholder
C        0.0601921360   -0.2210742522   -0.5868590396
N        0.3961716586   -1.4550939236    1.2733205287
H       -0.4563637946    1.6761681758   -0.6864614891
3    
placeholder
C        0.0468388766   -0.1720297131   -0.5496264532
N        0.4250531941   -1.5611715137    1.1925362339
H       -0.4718920707    1.7332012269   -0.6429097806
3    
placeholder
C        0.0382063742   -0.1403239911   -0.4962054030
N        0.4479843797   -1.6453940384    1.0766274817
H       -0.4861907539    1.7857180295   -0.5804220788
3    
placeholder
C        0.0299358703   -0.1099478495   -0.4415429840
N        0.4704592788   -1.7279406663    0.9580253053
H       -0.5003951491    1.8378885158   -0.5164823213
3    
placeholder
C        0.0216653664   -0.0795717078   -0.3868805651
N        0.4929341778   -1.8104872943    0.8394231289
H       -0.5145995443    1.8900590021   -0.4525425639
3    
placeholder
C        0.0133948626   -0.0491955662   -0.3322181462
N        0.5154090769   -1.8930339222    0.7208209526
H       -0.5288039394    1.9422294884   -0.3886028064
3    
placeholder
C        0.0057407154   -0.0210832425   -0.2740715629
N        0.5353460896   -1.9662591828    0.5946591098
H       -0.5410868050    1.9873424253   -0.3205875469
3    
placeholder
C       -0.0003548439    0.0013045403   -0.2071145355
N        0.5488655218   -2.0159134009    0.4493810565
H       -0.5485106779    2.0146088606   -0.2422665210
3    
placeholder
C       -0.0053506471    0.0196530544   -0.1385617730
N        0.5580632151   -2.0496944208    0.3006406999
H       -0.5527125680    2.0300413664   -0.1620789269
3    
placeholder
C       -0.0082894493    0.0304464571   -0.0670243224
N        0.5591774601   -2.0537859617    0.1454243965
H       -0.5508880108    2.0233395046   -0.0784000741
3    
placeholder
C       -0.0127276045    0.0467468177   -0.0006347676
N        0.5601612773   -2.0573985291    0.0013775918
H       -0.5474336729    2.0106517114   -0.0007428242
