3    
placeholder
C        0.3472833027   -2.0803621638    0.0000062047
N       -0.0176479038    0.1057250713   -0.0000064180
H       -0.3296353990    1.9746370925    0.0000002133
3    
placeholder
C        0.3445900042   -2.0883772860    0.0203102206
N       -0.0102068407    0.1135465946   -0.0440602143
H       -0.3343831635    1.9748306914    0.0237499937
3    
placeholder
C        0.3375686287   -2.0845317602    0.0524407791
N        0.0049734556    0.1055268044   -0.1137742863
H       -0.3425420843    1.9790049558    0.0613335072
3    
placeholder
C        0.3307859170   -2.0819825416    0.0844591973
N        0.0200469115    0.0978576326   -0.1832450407
H       -0.3508328285    1.9841249090    0.0987858434
3    
placeholder
C        0.3290095047   -2.1066251481    0.1141253171
N        0.0328792446    0.0975431649   -0.2476118739
H       -0.3618887493    2.0090819832    0.1334865568
3    
placeholder
C        0.3253894037   -2.1203197410    0.1438724552
N        0.0450505320    0.1013977029   -0.3121545137
H       -0.3704399357    2.0189220381    0.1682820584
3    
placeholder
C        0.3170867456   -2.1062088285    0.1738253616
N        0.0555429113    0.1158405828   -0.3771436627
H       -0.3726296569    1.9903682456    0.2033183011
3    
placeholder
C        0.3087840876   -2.0920979159    0.2037782680
N        0.0660352905    0.1302834628   -0.4421328116
H       -0.3748193781    1.9618144532    0.2383545437
3    
placeholder
C        0.3003983934   -2.0772624669    0.2335402162
N        0.0764713688    0.1445708252   -0.5067076395
H       -0.3768697623    1.9326916417    0.2731674233
3    
placeholder
C        0.2897485693   -2.0426712148    0.2580953444
N        0.0853723001    0.1546177214   -0.5599852503
H       -0.3751208694    1.8880534934    0.3018899059
3    
placeholder
C        0.2790987452   -2.0080799627    0.2826504726
N        0.0942732314    0.1646646176   -0.6132628611
H       -0.3733719766    1.8434153451    0.3306123885
3    
placeholder
C        0.2684489211   -1.9734887106    0.3072056008
N        0.1031741626    0.1747115138   -0.6665404719
H       -0.3716230837    1.7987771968    0.3593348711
3    
placeholder
C        0.2571736093   -1.9314234237    0.3286270232
N        0.1112258098    0.1817591725   -0.7130188807
H       -0.3683994191    1.7496642512    0.3843918575
3    
placeholder
C        0.2456228168   -1.8860663819    0.3486682817
N        0.1189034107    0.1874858908   -0.7565027480
H       -0.3645262275    1.6985804911    0.4078344662
3    
placeholder
C        0.2340720243   -1.8407093400    0.3687095403
N        0.1265810116    0.1932126090   -0.7999866153
H       -0.3606530359    1.6474967310    0.4312770750
3    
placeholder
C        0.2224007179   -1.7926881044    0.3871177723
N        0.1337337124    0.1978695191   -0.8399272990
H       -0.3561344303    1.5948185853    0.4528095267
3    
placeholder
C        0.2105693228   -1.7411277941    0.4033567165
N        0.1401891436    0.2011053122   -0.8751612712
H       -0.3507584664    1.5400224818    0.4718045547
3    
placeholder
C        0.1987198220   -1.6861476237    0.4168114960
N        0.1457187834    0.2027021748   -0.9043544268
H       -0.3444386054    1.4834454489    0.4875429309
3    
placeholder
C        0.1876118049   -1.6233434579    0.4199534506
N        0.1480312340    0.1969580986   -0.9111717826
H       -0.3356430389    1.4263853593    0.4912183320
3    
placeholder
C        0.1775600910   -1.5587434271    0.4162653063
N        0.1482943492    0.1858646547   -0.9031698212
H       -0.3258544402    1.3728787725    0.4869045149
3    
placeholder
C        0.1697885597   -1.5000622800    0.4060693011
N        0.1440313574    0.1850900864   -0.8810476259
H       -0.3138199171    1.3149721936    0.4749783248
3    
placeholder
C        0.1610200897   -1.4376342943    0.3977441961
N        0.1416425736    0.1779163855   -0.8629847782
H       -0.3026626633    1.2597179087    0.4652405821
3    
placeholder
C        0.1507041475   -1.3740211044    0.3962165797
N        0.1455293972    0.1506910914   -0.8596705925
H       -0.2962335447    1.2233300129    0.4634540128
3    
placeholder
C        0.1381872202   -1.3135892210    0.4084492131
N        0.1618802841    0.0843111549   -0.8862123028
H       -0.3000675043    1.2292780661    0.4777630897
3    
placeholder
C        0.1256702928   -1.2531573376    0.4206818464
N        0.1782311710    0.0179312183   -0.9127540131
H       -0.3039014638    1.2352261193    0.4920721667
3    
placeholder
C        0.1131533655   -1.1927254542    0.4329144798
N        0.1945820579   -0.0484487183   -0.9392957234
H       -0.3077354234    1.2411741724    0.5063812436
3    
placeholder
C        0.1006364382   -1.1322935708    0.4451471132
N        0.2109329448   -0.1148286549   -0.9658374337
H       -0.3115693830    1.2471222256    0.5206903205
3    
placeholder
C        0.0881195109   -1.0718616874    0.4573797465
N        0.2272838317   -0.1812085914   -0.9923791440
H       -0.3154033426    1.2530702788    0.5349993975
3    
placeholder
C        0.0765620514   -1.0072543322    0.4612692708
N        0.2408987656   -0.2527292491   -1.0008187491
H       -0.3174608169    1.2599835813    0.5395494783
3    
placeholder
C        0.0661094825   -0.9378386455    0.4555511535
N        0.2513630687   -0.3301697869   -0.9884125835
H       -0.3174725512    1.2680084324    0.5328614300
3    
placeholder
C        0.0558566413   -0.8684409374    0.4488422056
N        0.2615466409   -0.4084855651   -0.9738566048
H       -0.3174032822    1.2769265026    0.5250143992
3    
placeholder
C        0.0459316808   -0.7990727440    0.4405066713
N        0.2712693543   -0.4882381724   -0.9557714085
H       -0.3172010351    1.2873109164    0.5152647372
3    
placeholder
C        0.0360067204   -0.7297045505    0.4321711371
N        0.2809920678   -0.5679907797   -0.9376862122
H       -0.3169987881    1.2976953302    0.5055150751
3    
placeholder
C        0.0276662018   -0.6605570930    0.4160410054
N        0.2871931425   -0.6467621222   -0.9026889867
H       -0.3148593444    1.3073192151    0.4866479813
3    
placeholder
C        0.0199505356   -0.5914966864    0.3968369378
N        0.2920053975   -0.7251464858   -0.8610222066
H       -0.3119559331    1.3166431722    0.4641852688
3    
placeholder
C        0.0122348694   -0.5224362799    0.3776328702
N        0.2968176525   -0.8035308494   -0.8193554266
H       -0.3090525219    1.3259671293    0.4417225563
3    
placeholder
C        0.0072603582   -0.4566765079    0.3473978358
N        0.2952101658   -0.8719250294   -0.7537545886
H       -0.3024705240    1.3286015373    0.4063567528
3    
placeholder
C        0.0025558412   -0.3912418370    0.3160762893
N        0.2929703568   -0.9393352109   -0.6857963289
H       -0.2955261980    1.3305770479    0.3697200396
3    
placeholder
C       -0.0008995582   -0.3294879971    0.2815582229
N        0.2873696326   -0.9948612380   -0.6109024902
H       -0.2864700744    1.3243492351    0.3293442673
3    
placeholder
C       -0.0015050896   -0.2761319925    0.2397472793
N        0.2741009627   -1.0232735039   -0.5201850914
H       -0.2725958732    1.2994054964    0.2804378121
3    
placeholder
C       -0.0021106209   -0.2227759879    0.1979363357
N        0.2608322929   -1.0516857698   -0.4294676926
H       -0.2587216720    1.2744617577    0.2315313569
3    
placeholder
C       -0.0027161522   -0.1694199833    0.1561253921
N        0.2475636230   -1.0800980357   -0.3387502938
H       -0.2448474708    1.2495180190    0.1826249017
3    
placeholder
C       -0.0033216836   -0.1160639787    0.1143144485
N        0.2342949532   -1.1085103015   -0.2480328950
H       -0.2309732696    1.2245742802    0.1337184465
3    
placeholder
C       -0.0017365087   -0.0745483503    0.0714249836
N        0.2163140277   -1.1114777931   -0.1549752883
H       -0.2145775189    1.1860261433    0.0835503047
3    
placeholder
C        0.0040680542   -0.0828771740    0.0491924893
N        0.2095534091   -1.1283520606   -0.1067372306
H       -0.2136214633    1.2112292345    0.0575447413
3    
placeholder
C        0.0120101889   -0.1204893950    0.0408148647
N        0.2115034577   -1.1616527670   -0.0885602026
H       -0.2235136467    1.2821421620    0.0477453379
3    
placeholder
C        0.0199523237   -0.1581016160    0.0324372400
N        0.2134535064   -1.1949534734   -0.0703831746
H       -0.2334058300    1.3530550894    0.0379459346
3    
placeholder
C        0.0278944584   -0.1957138370    0.0240596154
N        0.2154035550   -1.2282541799   -0.0522061466
H       -0.2432980134    1.4239680168    0.0281465312
3    
placeholder
C        0.0297474809   -0.2025129478    0.0204432652
N        0.2149009437   -1.2345756614   -0.0443597118
H       -0.2446484246    1.4370886093    0.0239164466
3    
placeholder
C        0.0231724098   -0.1659900413    0.0228514230
N        0.2101861193   -1.2001176720   -0.0495847135
H       -0.2333585291    1.3661077133    0.0267332905
3    
placeholder
C        0.0168258417   -0.1302624834    0.0247774191
N        0.2051247946   -1.1648282850   -0.0537635581
H       -0.2219506363    1.2950907684    0.0289861390
3    
placeholder
C        0.0104792737   -0.0945349256    0.0267034153
N        0.2000634698   -1.1295388980   -0.0579424027
H       -0.2105427435    1.2240738235    0.0312389874
3    
placeholder
C        0.0041327056   -0.0588073677    0.0286294114
N        0.1950021450   -1.0942495110   -0.0621212473
H       -0.1991348506    1.1530568787    0.0334918359
3    
placeholder
C       -0.0016583551   -0.0649175094    0.0629339198
N        0.2047724535   -1.0642516137   -0.1365519957
H       -0.2031140985    1.1291691231    0.0736180759
3    
placeholder
C       -0.0040206290   -0.1123344582    0.1146990389
N        0.2194266437   -1.0184515529   -0.2488670375
H       -0.2154060147    1.1307860111    0.1341679986
3    
placeholder
C       -0.0058881842   -0.1612819868    0.1652593450
N        0.2331136828   -0.9699670437   -0.3585679687
H       -0.2272254986    1.1312490305    0.1933086237
3    
placeholder
C       -0.0042289565   -0.2200620600    0.2063237074
N        0.2403797293   -0.9075236377   -0.4476653636
H       -0.2361507729    1.1275856976    0.2413416562
3    
placeholder
C       -0.0029119969   -0.2712687170    0.2427443446
N        0.2431046338   -0.8298606947   -0.5266871867
H       -0.2401926369    1.1011294117    0.2839428421
3    

C        0.0021326006   -0.3044798775    0.2452601025
N        0.2478927807   -0.8520513560   -0.5321456270
H       -0.2500253813    1.1565312335    0.2868855245
3    
placeholder
C        0.0079885332   -0.3344626696    0.2409751428
N        0.2534547229   -0.8964270775   -0.5228485634
H       -0.2614432561    1.2308897472    0.2818734206
3    
placeholder
C        0.0044636055   -0.3231026399    0.2491774607
N        0.2491276344   -0.8493395805   -0.5406450935
H       -0.2535912399    1.1724422204    0.2914676327
3    
placeholder
C       -0.0003031126   -0.3062698586    0.2590327807
N        0.2434914867   -0.7901446501   -0.5620281350
H       -0.2431883741    1.0964145086    0.3029953543
3    
placeholder
C       -0.0050698306   -0.2894370773    0.2688881007
N        0.2378553389   -0.7309497196   -0.5834111766
H       -0.2327855083    1.0203867969    0.3145230760
3    
placeholder
C       -0.0098365487   -0.2726042960    0.2787434206
N        0.2322191912   -0.6717547891   -0.6047942182
H       -0.2223826425    0.9443590851    0.3260507976
3    
placeholder
C       -0.0162851465   -0.2038124386    0.2533834371
N        0.2327811616   -0.7405643060   -0.5497708438
H       -0.2164960151    0.9443767446    0.2963874067
3    
placeholder
C       -0.0127901903   -0.2039929240    0.2359325159
N        0.2358156445   -0.8037753410   -0.5119076092
H       -0.2230254542    1.0077682650    0.2759750932
3    
placeholder
C       -0.0072579036   -0.2189048679    0.2206063338
N        0.2392582379   -0.8639481015   -0.4786543866
H       -0.2320003343    1.0828529694    0.2580480528
3    
placeholder
C       -0.0017256169   -0.2338168119    0.2052801517
N        0.2427008313   -0.9241208619   -0.4454011640
H       -0.2409752143    1.1579376737    0.2401210123
3    
placeholder
C        0.0038066697   -0.2487287558    0.1899539695
N        0.2461434246   -0.9842936223   -0.4121479414
H       -0.2499500944    1.2330223781    0.2221939718
3    
placeholder
C        0.0080272026   -0.2241625810    0.1480420725
N        0.2358042590   -1.0305152501   -0.3212114736
H       -0.2438314616    1.2546778311    0.1731694012
3    
placeholder
C        0.0117998897   -0.1861181805    0.0970535456
N        0.2207598624   -1.0719738211   -0.2105813672
H       -0.2325597521    1.2580920016    0.1135278217
3    
placeholder
C        0.0155725767   -0.1480737799    0.0460650187
N        0.2057154659   -1.1134323922   -0.0999512609
H       -0.2212880426    1.2615061722    0.0538862422
3    
placeholder
C        0.0089968270   -0.1006646048    0.0393236175
N        0.2060224829   -1.1326680516   -0.0853245877
H       -0.2150193099    1.2333326563    0.0460009702
3    
placeholder
C       -0.0060891222   -0.0455541599    0.0689695361
N        0.2189539762   -1.1336283499   -0.1496478481
H       -0.2128648540    1.1791825097    0.0806783120
3    
placeholder
C       -0.0211750715    0.0095562850    0.0986154548
N        0.2318854696   -1.1345886481   -0.2139711085
H       -0.2107103981    1.1250323631    0.1153556537
3    
placeholder
C       -0.0253417723   -0.0090873874    0.1352766894
N        0.2493624778   -1.1446748583   -0.2935153742
H       -0.2240207054    1.1537622457    0.1582386848
3    
placeholder
C       -0.0273337187   -0.0424204499    0.1733351438
N        0.2677448028   -1.1565786494   -0.3760911626
H       -0.2404110841    1.1989990993    0.2027560187
3    
placeholder
C       -0.0293256650   -0.0757535123    0.2113935982
N        0.2861271278   -1.1684824405   -0.4586669509
H       -0.2568014628    1.2442359528    0.2472733527
3    
placeholder
C       -0.0313176113   -0.1090865748    0.2494520526
N        0.3045094528   -1.1803862315   -0.5412427393
H       -0.2731918415    1.2894728063    0.2917906867
3    
placeholder
C       -0.0333095576   -0.1424196373    0.2875105071
N        0.3228917778   -1.1922900226   -0.6238185277
H       -0.2895822202    1.3347096599    0.3363080207
3    
placeholder
C       -0.0339417894   -0.1328141232    0.2826186596
N        0.3325205104   -1.2625931820   -0.6132049120
H       -0.2985787209    1.3954073052    0.3305862524
3    
placeholder
C       -0.0344502680   -0.1193005895    0.2738177253
N        0.3413525419   -1.3382115125   -0.5941097383
H       -0.3069022739    1.4575121020    0.3202920130
3    
placeholder
C       -0.0349587465   -0.1057870558    0.2650167910
N        0.3501845734   -1.4138298430   -0.5750145646
H       -0.3152258269    1.5196168987    0.3099977736
3    
placeholder
C       -0.0346573537   -0.0915559403    0.2515335353
N        0.3570254448   -1.4896035296   -0.5457601088
H       -0.3223680911    1.5811594699    0.2942265735
3    
placeholder
C       -0.0327145941   -0.0758705013    0.2285606155
N        0.3598308309   -1.5656920769   -0.4959158287
H       -0.3271162368    1.6415625782    0.2673552132
3    
placeholder
C       -0.0307718346   -0.0601850624    0.2055876956
N        0.3626362170   -1.6417806241   -0.4460715486
H       -0.3318643824    1.7019656865    0.2404838529
3    
placeholder
C       -0.0288290750   -0.0444996234    0.1826147758
N        0.3654416031   -1.7178691714   -0.3962272684
H       -0.3366125280    1.7623687948    0.2136124927
3    
placeholder
C       -0.0251338213   -0.0310675143    0.1527098158
N        0.3643883910   -1.7887320633   -0.3313424378
H       -0.3392545697    1.8197995776    0.1786326220
3    
placeholder
C       -0.0205663020   -0.0187569509    0.1193545845
N        0.3614146460   -1.8569939995   -0.2589715021
H       -0.3408483441    1.8757509504    0.1396169176
3    
placeholder
C       -0.0159987826   -0.0064463875    0.0859993533
N        0.3584409011   -1.9252559357   -0.1866005665
H       -0.3424421185    1.9317023233    0.1006012132
3    
placeholder
C       -0.0101100195    0.0027823506    0.0485806981
N        0.3526332439   -1.9870277550   -0.1054131417
H       -0.3425232244    1.9842454044    0.0568324437
3    
placeholder
C       -0.0038348854    0.0111098714    0.0099737771
N        0.3459968665   -2.0469016713   -0.0216475138
H       -0.3421619811    2.0357917999    0.0116737367
3    
placeholder
C       -0.0091684069    0.0194170301    0.0298520435
N        0.3643983020   -2.1058351525   -0.0647778459
H       -0.3552298950    2.0864181225    0.0349258024
3    
placeholder
C       -0.0079868579    0.0477296192    0.0000963528
N        0.3511303599   -2.1031423681   -0.0002166733
H       -0.3431435020    2.0554127490    0.0001203204
